/batch
/config,noeldb,1     ! force off writing results to database
*get,_wallstrt,active,,time,wall
! ANSYS input file written by Workbench version 2025 R1
! File used for geometry attach: C:\Users\hsnyl\OneDrive\Masaüstü\bilg. dest. tasarım\ödev2\Parça1.x_t
/title,wbnew--Static Structural (A5)
! ****** Begin Custom Load Command Snippet ******
/COM, ACT Extensions:
/COM,     LSDYNA, 2025.1
/COM,     5f463412-bd3e-484b-87e7-cbc0a665e474, wbex
/COM,/COM,     ANSYSMotion, 2025.1
/COM,     20180725-3f81-49eb-9f31-41364844c769, wbex
/COM,
! ****** End   Custom Load Command Snippet ******
*DIM,_wb_ProjectScratch_dir,string,248
_wb_ProjectScratch_dir(1) = 'C:\Users\hsnyl\AppData\Local\Temp\WB_hsnyl_13220_2\_ProjectScratch\ScrD3DA\'
*DIM,_wb_SolverFiles_dir,string,248
_wb_SolverFiles_dir(1) = 'C:\Users\hsnyl\AppData\Local\Temp\WB_hsnyl_13220_2\wbnew_files\dp0\SYS\MECH\'
*DIM,_wb_userfiles_dir,string,248
_wb_userfiles_dir(1) = 'C:\Users\hsnyl\AppData\Local\Temp\WB_hsnyl_13220_2\wbnew_files\user_files\'
/com,--- Data in consistent NMM units. See Solving Units in the help system for more information.
/units,MPA
/nopr
/wb,file,start              !  signify a WB generated input file
/prep7
! Turn off shape checking because checks already performed inside WB mesher.
! See help system for more information.
SHPP,OFF,,NOWARN
/nolist
etcon,set             ! allow ANSYS to choose best KEYOP's for 180x elements, resets any applicable keyopt to MAPDL defaults
/com,*********** Nodes for the whole assembly ***********
nblock,3,,4286
(1i9,3e20.9e3)
        1    -7.074532904E-01     5.026997722E+01     7.000000000E+00
        2    -7.074532904E-01     4.318559427E+01     7.000000000E+00
        3    -7.074532904E-01     4.672778575E+01     7.000000000E+00
        4     2.636059642E+00     4.266487791E+01     8.282350033E+00
        5     2.636059642E+00     4.974926086E+01     8.282350033E+00
        6     2.636059642E+00     4.620706939E+01     8.282350033E+00
        7     3.925679932E+01     3.696158959E+01     4.121764997E+01
        8     6.298133610E+00     4.209454908E+01     1.157588003E+01
        9     9.960207578E+00     4.152422025E+01     1.486941002E+01
       10     1.362228155E+01     4.095389142E+01     1.816294001E+01
       11     1.728435551E+01     4.038356258E+01     2.145647001E+01
       12     2.094642948E+01     3.981323375E+01     2.475000000E+01
       13     2.460850345E+01     3.924290492E+01     2.804352999E+01
       14     2.827057742E+01     3.867257609E+01     3.133705999E+01
       15     3.193265139E+01     3.810224725E+01     3.463058998E+01
       16     3.559472535E+01     3.753191842E+01     3.792411997E+01
       17     3.925679932E+01     4.404597254E+01     4.121764997E+01
       18     3.925679932E+01     4.050378106E+01     4.121764997E+01
       19     3.559472535E+01     4.461630137E+01     3.792411997E+01
       20     3.193265139E+01     4.518663020E+01     3.463058998E+01
! ... 3878 like lines cut
/wb,elem,start            !  set before creation of elements
/com,*********** Elements for Body 1 'Part 1' ***********
et,1,187
eblock,19,solid,,1816
(19i9)
        1        1        1        1        0        0        0        0       10        0        1      393      719      396      686     2748     2760     2746     2747
     3884     2759
        1        1        1        1        0        0        0        0       10        0        2      392      719      396      393     2744     2760     2743     2742
     2748     2746
        1        1        1        1        0        0        0        0       10        0        3      343      522      719      686     2500     3359     2502     2501
     3358     3884
        1        1        1        1        0        0        0        0       10        0        4      334      344      343      719     2443     2497     2442     2445
     2507     2502
        1        1        1        1        0        0        0        0       10        0        5      334      343      522      719     2442     2500     2444     2445
     2502     3359
        1        1        1        1        0        0        0        0       10        0        6      396      686      719      522     2759     3884     2760     2758
     3358     3359
        1        1        1        1        0        0        0        0       10        0        7      334      522      338      719     2444     2470     2439     2445
     3359     2473
        1        1        1        1        0        0        0        0       10        0        8      334      338      344      719     2439     2467     2443     2445
     2473     2507
        1        1        1        1        0        0        0        0       10        0        9      343      344      392      719     2497     2505     2498     2502
     2507     2744
        1        1        1        1        0        0        0        0       10        0       10      367      396      719      522     2624     2760     2626     2625
     2758     3359
! ... 3613 like lines cut
! Material Id = {1DC408CA-4129-425E-AF77-C4F1ADD97864}
/wb,elem,end               !  done creating elements
/com,*********** Send User Defined Coordinate System(s) ***********
csys,0
toffst,273.15,      ! Temperature offset from absolute zero
/com,*********** Set Reference Temperature ***********
tref,22.
/wb,mat,start              !  starting to send materials
/com,*********** Send Materials ***********
Temperature = 'TEMP' ! Temperature
MP,DENS,1,7.85e-09,	! tonne mm^-3
MP,ALPX,1,1.2e-05,	! C^-1
MP,C,1,434000000,	! mm^2 s^-2 C^-1
MP,KXX,1,60.5,	! tonne mm s^-3 C^-1
MP,RSVX,1,0.00017,	! ohm mm
MP,EX,1,200000,	! tonne s^-2 mm^-1
MP,NUXY,1,0.3,
MP,MURX,1,10000,
MP,UVID,1,b728a0c2-2a85-4450-bf45-56be3b76507f
MP,UMID,1,59002a79-71c2-428e-906b-55d7dbee100e

/wb,mat,end                !  done sending materials
!************************* Model Summary ********************
!Part 1,	Structural Steel,	matid,	1
!************************* End Model Summary ********************
! get the diagonal of the bounding box. Needed later for other things
*get,_xmin,node,,mnloc,x
*get,_ymin,node,,mnloc,y
*get,_zmin,node,,mnloc,z
*get,_xmax,node,,mxloc,x
*get,_ymax,node,,mxloc,y
*get,_zmax,node,,mxloc,z
_ASMDIAG=(_xmax-_xmin)*(_xmax-_xmin)+(_ymax-_ymin)*(_ymax-_ymin)+(_zmax-_zmin)*(_zmax-_zmin)
_ASMDIAG=SQRT(_ASMDIAG)
/wb,contact,start          !  starting to send contact
/wb,contact,end            !  done creating contacts
/golist
/wb,load,start             !  starting to send loads
/com,*********** Fixed Supports ***********
CMBLOCK,_FIXEDSU,NODE,      136
(8i10)
       291       292       293       294       295       296       297       298
       325       326       327       328       329       330       331       332
       359       360       361       362       363       364       365       366
       397       398       399       400       401       402       403       404
       539       540       541       542       543       544       545       546
       547       548      2227      2228      2229      2230      2234      2235
      2236      2239      2241      2242      2244      2245      2246      2249
      2250      2251      2253      2254      2255      2258      2259      2261
      2263      2399      2400      2401      2402      2406      2407      2410
      2412      2413      2415      2416      2419      2420      2421      2423
      2424      2425      2427      2429      2430      2431      2583      2584
      2585      2586      2590      2591      2592      2595      2597      2598
      2599      2600      2601      2603      2604      2605      2609      2610
      2611      2614      2615      2617      2619      2761      2762      2763
      2764      2768      2769      2771      2773      2774      2776      2777
      2780      2781      2782      2785      2786      2787      2791      2793
      2794      2796      3426      3432      3435      3441      3447      3450

cmsel,s,_FIXEDSU
d,all,all
nsel,all
/com,*********** Define Force Using Surface Effect Elements ***********
local,12,0,0.,0.,0.,0.,0.,0.
csys,0
et,2,154
eblock,10,,,118
(15i9)
     3095        2        2        2       12      260      159      160      160     1539     1537      160     1543
     3096        2        2        2       12      257      258      597      597     2049     2056      597     2051
     3097        2        2        2       12      157      257      182      182     1528     1647      182     1527
     3098        2        2        2       12      233      259      256      256     1940     2046      256     1939
     3099        2        2        2       12      258      230      234      234     1929     1928      234     1943
     3100        2        2        2       12      259      260      598      598     2058     2064      598     2060
     3101        2        2        2       12      160      161      599      599     1542     1548      599     1544
     3102        2        2        2       12      161      629      599      599     1549     3669      599     1548
     3103        2        2        2       12      162      163      600      600     1550     1558      600     1553
     3104        2        2        2       12      163      164      601      601     1555     1562      601     1559
     3105        2        2        2       12      164      165      602      602     1561     1567      602     1563
     3106        2        2        2       12      165      166      603      603     1565     1572      603     1568
     3107        2        2        2       12      166      167      604      604     1571     1576      604     1573
     3108        2        2        2       12      167      168      605      605     1575     1580      605     1577
     3109        2        2        2       12      168      169      606      606     1579     1585      606     1581
     3110        2        2        2       12      169      170      607      607     1584     1591      607     1586
     3111        2        2        2       12      170      171      608      608     1589     1596      608     1592
     3112        2        2        2       12      171      172      609      609     1595     1601      609     1597
     3113        2        2        2       12      172      173      610      610     1600     1605      610     1602
     3114        2        2        2       12      173      174      611      611     1604     1611      611     1606
! ... 99 like lines cut
esel,s,type,,2
keyop,2,2,1         ! Apply load in local coordinate system
keyop,2,7,1         ! Use original area so load is constant in large deformation
esel,all
/gst,on,on
fini
*get,_numnode,node,0,count
*get,_numelem,elem,0,count
*get, _MAXELEMNUM, elem, 0, NUM, MAX
*get, _MAXNODENUM, node, 0, NUM, MAX
*get, _MAXELEMTYPE, etyp, 0, NUM, MAX
*get, _MAXREALCONST, rcon, 0, NUM, MAX
/go
/wb,load,end               !  done creating loads
/com,--- Number of total nodes = %_numnode%
/com,--- Number of contact elements = 118
/com,--- Number of spring elements = 0
/com,--- Number of bearing elements = 0
/com,--- Number of solid elements = 1816
/com,--- Number of condensed parts = 0
/com,--- Number of total elements = %_numelem%
*get,_wallbsol,active,,time,wall
/com,****************************************************************************
/com,*************************    SOLUTION       ********************************
/com,****************************************************************************
/solu
antype,0                   ! static analysis
_thickRatio=  0     ! Ratio of thick parts in the model
eqsl,sparse,,,,,1
cntr,print,1               ! print out contact info and also make no initial contact an error
cncheck,dmp		!	Enable program controlled contact splitting for distributed memory parallel run
dmpoption,emat,no             ! Don't combine emat file for DANSYS
dmpoption,esav,no             ! Don't combine esav file for DANSYS
nldiag,cont,iter           ! print out contact info each equilibrium iteration
rescontrol,,none                 ! Do not keep any restart files
/com,****************************************************
/com,******************* SOLVE FOR LS 1 OF 1 ****************
esel,s,type,,2
nsle
sfe,all,1,pres,1,5.09291577379009e-003
sfe,all,2,pres,1,-3.27015479941133e-002
sfe,all,3,pres,1,0.
nsel,all
esel,all
acel,0.,9806.65,0.
/nopr
/gopr
nsub,1,1,1
time,1.
outres,erase
outres,all,none
outres,nsol,all,
outres,rsol,all
outres,eangl,all
outres,etmp,all
outres,veng,all
outres,strs,all,
outres,epel,all,
outres,eppl,all,
outres,cont,all,
! *********** WB SOLVE COMMAND ***********
! check interactive state
*get,ANSINTER_,active,,int
*if,ANSINTER_,ne,0,then
/eof
*endif
solve
/com *************** Write FE CONNECTORS ********* 
CEWRITE,file,ce,,INTE
/com,****************************************************
/com,*************** FINISHED SOLVE FOR LS 1 *************
*get,_wallasol,active,,time,wall
/nopr
*get,_numnode,node,0,count
*get,_numelem,elem,0,count
*get, _MAXELEMNUM, elem, 0, NUM, MAX
*get, _MAXNODENUM, node, 0, NUM, MAX,,,INTERNAL
*get, _MAXELEMTYPE, etyp, 0, NUM, MAX
*get, _MAXREALCONST, rcon, 0, NUM, MAX
*get,_NSOLTHREADS,active,0,ntfs
*get,_NSOLPROCESSES,active,0,npfs
/gopr
/post1
xmlo,ENCODING,ISO-8859-1
xmlo,parm
/xml,parm,xml
fini
/gopr
*get,_walldone,active,,time,wall
_preptime=(_wallbsol-_wallstrt)*3600
_solvtime=(_wallasol-_wallbsol)*3600
_posttime=(_walldone-_wallasol)*3600
_totaltim=(_walldone-_wallstrt)*3600
*get,_dlbratio,active,0,solu,dlbr
*get,_combtime,active,0,solu,comb
*get,_ssmode,active,0,solu,ssmm
*get,_ndofs,active,0,solu,ndof
*get,_sol_end_time,active,0,set,time
*if,_sol_end_time,eq,1.000000,then
/fclean				!clean distributed files
*endif
/com,--- Total number of nodes = %_numnode%
/com,--- Total number of elements = %_numelem%
/com,--- Element load balance ratio = %_dlbratio%
/com,--- Time to combine distributed files = %_combtime%
/com,--- Sparse memory mode = %_ssmode%
/com,--- Number of DOF = %_ndofs%
/wb,file,end               ! done with WB generated input
