/batch
/config,noeldb,1     ! force off writing results to database
*get,_wallstrt,active,,time,wall
! ANSYS input file written by Workbench version 2025 R1
! File used for geometry attach: C:\Users\hsnyl\AppData\Local\Temp\WB_hsnyl_23808_2\wbnew_files\dp0\SYS\DM\SYS.agdb
/title,wbnew--Static Structural (A5)
! ****** Begin Custom Load Command Snippet ******
/COM, ACT Extensions:
/COM,     LSDYNA, 2025.1
/COM,     5f463412-bd3e-484b-87e7-cbc0a665e474, wbex
/COM,/COM,     ANSYSMotion, 2025.1
/COM,     20180725-3f81-49eb-9f31-41364844c769, wbex
/COM,
! ****** End   Custom Load Command Snippet ******
*DIM,_wb_ProjectScratch_dir,string,248
_wb_ProjectScratch_dir(1) = 'C:\Users\hsnyl\AppData\Local\Temp\WB_hsnyl_23808_2\_ProjectScratch\Scr4940\'
*DIM,_wb_SolverFiles_dir,string,248
_wb_SolverFiles_dir(1) = 'C:\Users\hsnyl\AppData\Local\Temp\WB_hsnyl_23808_2\wbnew_files\dp0\SYS\MECH\'
*DIM,_wb_userfiles_dir,string,248
_wb_userfiles_dir(1) = 'C:\Users\hsnyl\AppData\Local\Temp\WB_hsnyl_23808_2\wbnew_files\user_files\'
/com,--- Data in consistent NMM units. See Solving Units in the help system for more information.
/units,MPA
/nopr
/wb,file,start              !  signify a WB generated input file
/prep7
! Turn off shape checking because checks already performed inside WB mesher.
! See help system for more information.
SHPP,OFF,,NOWARN
/nolist
etcon,set             ! allow ANSYS to choose best KEYOP's for 180x elements, resets any applicable keyopt to MAPDL defaults
/com,*********** Nodes for the whole assembly ***********
nblock,3,,1519
(1i9,3e20.9e3)
        1    -1.500000000E+02     5.000000000E+03    -1.500000000E+02
        2     1.500000000E+02     5.000000000E+03     1.500000000E+02
        3    -9.000000000E+01     5.000000000E+03    -9.000000000E+01
        4    -3.000000000E+01     5.000000000E+03    -3.000000000E+01
        5     3.000000000E+01     5.000000000E+03     3.000000000E+01
        6     9.000000000E+01     5.000000000E+03     9.000000000E+01
        7     3.750000000E+02     2.937500000E+03    -0.000000000E+00
        8     3.000000000E+02     3.500000000E+03    -3.000000000E+02
        9     3.642857143E+02     3.017857143E+03    -4.285714286E+01
       10     3.535714286E+02     3.098214286E+03    -8.571428571E+01
       11     3.428571429E+02     3.178571429E+03    -1.285714286E+02
       12     3.321428571E+02     3.258928571E+03    -1.714285714E+02
       13     3.214285714E+02     3.339285714E+03    -2.142857143E+02
       14     3.107142857E+02     3.419642857E+03    -2.571428571E+02
       15     5.000000000E+02     2.000000000E+03     5.000000000E+02
       16     4.886363636E+02     2.085227273E+03     4.545454545E+02
       17     4.772727273E+02     2.170454545E+03     4.090909091E+02
       18     4.659090909E+02     2.255681818E+03     3.636363636E+02
       19     4.545454545E+02     2.340909091E+03     3.181818182E+02
       20     4.431818182E+02     2.426136364E+03     2.727272727E+02
! ... 1362 like lines cut
/wb,elem,start            !  set before creation of elements
/com,*********** Elements for Body 1 'Line Body' ***********
et,1,188
keyo,1,3,2
eblock,19,solid,,709
(19i9)
        1        1        1        1        0        0        0        0        3        0        1        1        3      673
        1        1        1        1        0        0        0        0        3        0        2        3        4      674
        1        1        1        1        0        0        0        0        3        0        3        4        5      675
        1        1        1        1        0        0        0        0        3        0        4        5        6      676
        1        1        1        1        0        0        0        0        3        0        5        6        2      677
        1        1        1        1        0        0        0        0        3        0        6        7        9      678
        1        1        1        1        0        0        0        0        3        0        7        9       10      679
        1        1        1        1        0        0        0        0        3        0        8       10       11      680
        1        1        1        1        0        0        0        0        3        0        9       11       12      681
        1        1        1        1        0        0        0        0        3        0       10       12       13      682
        1        1        1        1        0        0        0        0        3        0       11       13       14      683
        1        1        1        1        0        0        0        0        3        0       12       14        8      684
        1        1        1        1        0        0        0        0        3        0       13       15       16      685
        1        1        1        1        0        0        0        0        3        0       14       16       17      686
        1        1        1        1        0        0        0        0        3        0       15       17       18      687
        1        1        1        1        0        0        0        0        3        0       16       18       19      688
        1        1        1        1        0        0        0        0        3        0       17       19       20      689
        1        1        1        1        0        0        0        0        3        0       18       20       21      690
        1        1        1        1        0        0        0        0        3        0       19       21       22      691
        1        1        1        1        0        0        0        0        3        0       20       22       23      692
! ... 690 like lines cut
!Material Id = {348F66C2-C7D3-4916-8E9E-3B7DF42467A1}
/wb,elem,end               !  done creating elements
/com,*********** Send User Defined Coordinate System(s) ***********
csys,0
toffst,273.15,      ! Temperature offset from absolute zero
/com,*********** Set Reference Temperature ***********
tref,22.
/wb,mat,start              !  starting to send materials
/com,*********** Send Materials ***********
Temperature = 'TEMP' ! Temperature
MP,DENS,1,7.85e-09,	! tonne mm^-3
MP,ALPX,1,1.2e-05,	! C^-1
MP,C,1,434000000,	! mm^2 s^-2 C^-1
MP,KXX,1,60.5,	! tonne mm s^-3 C^-1
MP,RSVX,1,0.00017,	! ohm mm
MP,EX,1,200000,	! tonne s^-2 mm^-1
MP,NUXY,1,0.3,
MP,MURX,1,10000,
MP,UVID,1,bb2f8748-4e7a-4d06-9c7a-c8346ec7df7e
MP,UMID,1,59002a79-71c2-428e-906b-55d7dbee100e

/wb,mat,end                !  done sending materials
/com,*********** Send Beam Properties ***********
SECTYPE,1,BEAM,L
SECDATA,80.,80.,6.,6.
secoffset,cent

!************************* Model Summary ********************
!Line Body,	Structural Steel,	matid,	1
!************************* End Model Summary ********************
! get the diagonal of the bounding box. Needed later for other things
*get,_xmin,node,,mnloc,x
*get,_ymin,node,,mnloc,y
*get,_zmin,node,,mnloc,z
*get,_xmax,node,,mxloc,x
*get,_ymax,node,,mxloc,y
*get,_zmax,node,,mxloc,z
_ASMDIAG=(_xmax-_xmin)*(_xmax-_xmin)+(_ymax-_ymin)*(_ymax-_ymin)+(_zmax-_zmin)*(_zmax-_zmin)
_ASMDIAG=SQRT(_ASMDIAG)
/wb,contact,start          !  starting to send contact
/wb,contact,end            !  done creating contacts
/golist
/wb,load,start             !  starting to send loads
/com,*********** Fixed Supports ***********
CMBLOCK,_FIXEDSU,NODE,        4
(8i10)
       144       194       224       280
cmsel,s,_FIXEDSU
d,all,all
nsel,all
/com,*********** Define Force Using Surface Effect Elements ***********
local,12,0,0.,0.,0.,0.,0.,0.
csys,0
et,2,156
keyop,2,5,1         !  No orientation node
eblock,10,,,5
(15i9)
      710        2        2        2       12        1        3
      711        2        2        2       12        3        4
      712        2        2        2       12        4        5
      713        2        2        2       12        5        6
      714        2        2        2       12        6        2
-1
esel,s,type,,2
keyop,2,2,1         ! Apply load in local coordinate system
keyop,2,7,1         ! Use original area so load is constant in large deformation
esel,all
/com,*********** Define Force Using Surface Effect Elements ***********
local,13,0,0.,0.,0.,0.,0.,0.
csys,0
et,3,156
keyop,3,5,1         !  No orientation node
eblock,10,,,709
(15i9)
      715        3        3        3       13        1        3
      716        3        3        3       13        3        4
      717        3        3        3       13        4        5
      718        3        3        3       13        5        6
      719        3        3        3       13        6        2
      720        3        3        3       13        7        9
      721        3        3        3       13        9       10
      722        3        3        3       13       10       11
      723        3        3        3       13       11       12
      724        3        3        3       13       12       13
      725        3        3        3       13       13       14
      726        3        3        3       13       14        8
      727        3        3        3       13       15       16
      728        3        3        3       13       16       17
      729        3        3        3       13       17       18
      730        3        3        3       13       18       19
      731        3        3        3       13       19       20
      732        3        3        3       13       20       21
      733        3        3        3       13       21       22
      734        3        3        3       13       22       23
! ... 690 like lines cut
esel,s,type,,3
keyop,3,2,1         ! Apply load in local coordinate system
keyop,3,7,1         ! Use original area so load is constant in large deformation
esel,all
/gst,on,on
fini
*get,_numnode,node,0,count
*get,_numelem,elem,0,count
*get, _MAXELEMNUM, elem, 0, NUM, MAX
*get, _MAXNODENUM, node, 0, NUM, MAX
*get, _MAXELEMTYPE, etyp, 0, NUM, MAX
*get, _MAXREALCONST, rcon, 0, NUM, MAX
/go
/wb,load,end               !  done creating loads
/com,--- Number of total nodes = %_numnode%
/com,--- Number of contact elements = 714
/com,--- Number of spring elements = 0
/com,--- Number of bearing elements = 0
/com,--- Number of solid elements = 709
/com,--- Number of condensed parts = 0
/com,--- Number of total elements = %_numelem%
*get,_wallbsol,active,,time,wall
/com,****************************************************************************
/com,*************************    SOLUTION       ********************************
/com,****************************************************************************
/solu
antype,0                   ! static analysis
_thickRatio=  0     ! Ratio of thick parts in the model
eqsl,sparse,,,,,1
cntr,print,1               ! print out contact info and also make no initial contact an error
cncheck,dmp		!	Enable program controlled contact splitting for distributed memory parallel run
dmpoption,emat,no             ! Don't combine emat file for DANSYS
dmpoption,esav,no             ! Don't combine esav file for DANSYS
nldiag,cont,iter           ! print out contact info each equilibrium iteration
rescontrol,,none                 ! Do not keep any restart files
/com,****************************************************
/com,******************* SOLVE FOR LS 1 OF 1 ****************
esel,s,type,,2
nsle
sfe,all,1,pres,1,1.28359004222447e-002
sfe,all,2,pres,1,-0.128359006154178
sfe,all,3,pres,1,-1.28359004222447e-002
esel,s,type,,3
nsle
sfe,all,1,pres,1,7.4441421203748e-005
sfe,all,2,pres,1,0.
sfe,all,3,pres,1,6.88721481964769e-021
nsel,all
esel,all
acel,0.,9806.65,0.
/nopr
/gopr
nsub,1,1,1
time,1.
outres,erase
outres,all,none
outres,nsol,all,
outres,rsol,all
outres,eangl,all
outres,etmp,all
outres,veng,all
outres,strs,all,
outres,epel,all,
outres,eppl,all,
outres,cont,all,
/nopr
esel,s,type,,1
cm,_elmisc,elem
esel,all
/gopr
outres,misc,all,_elmisc
! *********** WB SOLVE COMMAND ***********
! check interactive state
*get,ANSINTER_,active,,int
*if,ANSINTER_,ne,0,then
/eof
*endif
solve
/com *************** Write FE CONNECTORS ********* 
CEWRITE,file,ce,,INTE
/com,****************************************************
/com,*************** FINISHED SOLVE FOR LS 1 *************
*get,_wallasol,active,,time,wall
/nopr
*get,_numnode,node,0,count
*get,_numelem,elem,0,count
*get, _MAXELEMNUM, elem, 0, NUM, MAX
*get, _MAXNODENUM, node, 0, NUM, MAX,,,INTERNAL
*get, _MAXELEMTYPE, etyp, 0, NUM, MAX
*get, _MAXREALCONST, rcon, 0, NUM, MAX
*get,_NSOLTHREADS,active,0,ntfs
*get,_NSOLPROCESSES,active,0,npfs
/gopr
/post1
xmlo,ENCODING,ISO-8859-1
xmlo,parm
/xml,parm,xml
fini
/gopr
*get,_walldone,active,,time,wall
_preptime=(_wallbsol-_wallstrt)*3600
_solvtime=(_wallasol-_wallbsol)*3600
_posttime=(_walldone-_wallasol)*3600
_totaltim=(_walldone-_wallstrt)*3600
*get,_dlbratio,active,0,solu,dlbr
*get,_combtime,active,0,solu,comb
*get,_ssmode,active,0,solu,ssmm
*get,_ndofs,active,0,solu,ndof
*get,_sol_end_time,active,0,set,time
*if,_sol_end_time,eq,1.000000,then
/fclean				!clean distributed files
*endif
/com,--- Total number of nodes = %_numnode%
/com,--- Total number of elements = %_numelem%
/com,--- Element load balance ratio = %_dlbratio%
/com,--- Time to combine distributed files = %_combtime%
/com,--- Sparse memory mode = %_ssmode%
/com,--- Number of DOF = %_ndofs%
/wb,file,end               ! done with WB generated input
